*HEADING
cubit(ems/elasticity/tensile_specimen/mesh/tensile_specimen.inp): 10/23/2012: 16
version: 13.2
**
********************************** P A R T S **********************************
*PART, NAME=Part-Default
**
********************************** N O D E S **********************************
*NODE, NSET=ALLNODES
       1,    0.000000e+00,    1.000000e+00,    0.000000e+00
       2,    0.000000e+00,    5.000000e-01,    0.000000e+00
       3,    5.000000e-01,    5.000000e-01,    0.000000e+00
       4,    5.000000e-01,    1.000000e+00,    0.000000e+00
       5,    0.000000e+00,    1.000000e+00,    2.500000e-01
       6,    0.000000e+00,    5.000000e-01,    2.500000e-01
       7,    5.000000e-01,    5.000000e-01,    2.500000e-01
       8,    5.000000e-01,    1.000000e+00,    2.500000e-01
       9,    0.000000e+00,    0.000000e+00,    0.000000e+00
      10,    5.000000e-01,    0.000000e+00,    0.000000e+00
      11,    0.000000e+00,    0.000000e+00,    2.500000e-01
      12,    5.000000e-01,    0.000000e+00,    2.500000e-01
      13,    1.000000e+00,    5.000000e-01,    0.000000e+00
      14,    1.000000e+00,    1.000000e+00,    0.000000e+00
      15,    1.000000e+00,    5.000000e-01,    2.500000e-01
      16,    1.000000e+00,    1.000000e+00,    2.500000e-01
      17,    1.000000e+00,    0.000000e+00,    0.000000e+00
      18,    1.000000e+00,    0.000000e+00,    2.500000e-01
      19,    1.500000e+00,    5.000000e-01,    0.000000e+00
      20,    1.500000e+00,    1.000000e+00,    0.000000e+00
** ... 205 like lines cut
**
********************************** E L E M E N T S ****************************
*ELEMENT, TYPE=C3D8R, ELSET=EB1
       1,       1,       2,       3,       4,       5,       6,       7,       8
       2,       2,       9,      10,       3,       6,      11,      12,       7
       3,       4,       3,      13,      14,       8,       7,      15,      16
       4,       3,      10,      17,      13,       7,      12,      18,      15
       5,      14,      13,      19,      20,      16,      15,      21,      22
       6,      13,      17,      23,      19,      15,      18,      24,      21
       7,      20,      19,      25,      26,      22,      21,      27,      28
       8,      19,      23,      29,      25,      21,      24,      30,      27
       9,      26,      25,      31,      32,      28,      27,      33,      34
      10,      25,      29,      35,      31,      27,      30,      36,      33
      11,      32,      31,      37,      38,      34,      33,      39,      40
      12,      31,      35,      41,      37,      33,      36,      42,      39
      13,      38,      37,      43,      44,      40,      39,      45,      46
      14,      37,      41,      47,      43,      39,      42,      48,      45
      15,      44,      43,      49,      50,      46,      45,      51,      52
      16,      43,      47,      53,      49,      45,      48,      54,      51
      17,      50,      49,      55,      56,      52,      51,      57,      58
      18,      49,      53,      59,      55,      51,      54,      60,      57
      19,      56,      55,      61,      62,      58,      57,      63,      64
      20,      55,      59,      65,      61,      57,      60,      66,      63
** ... 76 like lines cut
**
********************************** S I D E S E T S **********************************
*ELSET, ELSET=SS1_S3
       1,       2,      21,      22
*SURFACE, NAME=SS1
SS1_S3, S3
*ELSET, ELSET=SS3_S1
      41,      42,      43,      44,      49,      50,      51,      52,      53,      54,
      55,      56,      73,      74,      75,      76,      81,      82,      83,      84,
      85,      86,      87,      88
*ELSET, ELSET=SS3_S4
       2,       4,       6,       8,      10,      12,      14,      16,      18,      20,
      22,      24,      26,      28,      30,      32,      34,      36,      38,      40
*ELSET, ELSET=SS3_S6
      65,      67,      69,      71
*SURFACE, NAME=SS3
SS3_S1, S1
SS3_S4, S4
SS3_S6, S6
*ELSET, ELSET=SS5_S1
       1,       2,       3,       4,       5,       6,       7,       8,       9,      10,
      11,      12,      13,      14,      15,      16,      17,      18,      19,      20,
      65,      66,      67,      68
*ELSET, ELSET=SS5_S5
      43,      44,      47,      48,      53,      54,      55,      56,      61,      62,
      63,      64,      75,      76,      79,      80,      85,      86,      87,      88,
      93,      94,      95,      96
*SURFACE, NAME=SS5
SS5_S1, S1
SS5_S5, S5
*ELSET, ELSET=SS6_S3
      81,      82,      83,      84,      89,      90,      91,      92
*SURFACE, NAME=SS6
SS6_S3, S3
*ELSET, ELSET=SS10_S2
      57,      58,      59,      60,      61,      62,      63,      64
*SURFACE, NAME=SS10
SS10_S2, S2
*ELSET, ELSET=SS11_S4
      66,      68,      70,      72
*SURFACE, NAME=SS11
SS11_S4, S4
**
********************************** P R O P E R T I E S ************************
*SOLID SECTION, ELSET=EB1, MATERIAL=Default-Steel
**
*END PART
**
**
**
********************************** E N D   P A R T S **********************************
**
**
********************************** A S S E M B L Y ************************************
**
*ASSEMBLY, NAME=ASSEMBLY1
**
*INSTANCE, NAME=Part-Default_1, PART=Part-Default
*END INSTANCE
**
*END ASSEMBLY
**
**
**
*MATERIAL, NAME = Default-Steel
*ELASTIC, TYPE=ISOTROPIC
2.068000e+05, 2.900000e-01
*DENSITY
7.000000e-06
*CONDUCTIVITY,TYPE=ISO
4.500000e-02
*SPECIFIC HEAT
5.000000e+02
**
**
************************************** H I S T O R Y *************************************
**
*PREPRINT
**
**************************************** S T E P 1 ***************************************
*STEP,INC=100,NAME=Default Set
**
*STATIC
1, 1, 1e-05, 1
**
**
**
**
*END STEP
